/*--------------------------------*- C++ -*----------------------------------*\
| =========                 |                                                 |
| \\      /  F ield         | OpenFOAM: The Open Source CFD Toolbox           |
|  \\    /   O peration     | Version:  2206                                  |
|   \\  /    A nd           | Website:  www.openfoam.com                      |
|    \\/     M anipulation  |                                                 |
\*---------------------------------------------------------------------------*/
FoamFile
{
    version     2.0;
    format      ascii;
    arch        "LSB;label=32;scalar=64";
    class       scalarListList;
    location    "constant";
    object      F;
}
// * * * * * * * * * * * * * * * * * * * * * * * * * * * * * * * * * * * * * //


160
(

120
(
0.0037822
0.00420738
0.0046792
0.0052022
0.00578112
0.00642077
0.00712591
0.00790094
0.00874961
0.0096745
0.0107004
0.0117877
0.0129482
0.0141727
0.0154453
0.0167427
0.0180326
0.0192727
0.0204113
0.0213885
0.0199405
0.0167301
0.0140941
0.0119285
0.010144
0.00866722
0.0074391
0.00641228
0.00554916
0.0048198
0.00423207
0.00369663
0.0032381
0.00284374
0.00250322
0.0022081
0.00195146
0.00172759
0.00153175
0.00135999
0.00134478
0.00150224
0.00167877
0.00187679
0.00209902
0.00234856
0.00262886
0.00294378
0.00329757
0.00369489
0.00413293
0.00463144
0.00518862
0.0058088
0.00649461
0.00724532
0.00805415
0.00890375
0.00975916
0.0105569
0.0100748
0.00851322
0.00710182
0.00585564
0.00477692
0.00385862
0.00308787
0.00244871
0.0019241
0.00149736
0.00120043
0.000916199
0.000689666
0.000510333
0.000369326
0.000259245
0.000173979
0.00010852
5.87956e-05
2.15075e-05
2.15075e-05
2.43273e-05
2.75726e-05
3.13226e-05
3.56757e-05
4.07547e-05
4.67153e-05
5.37565e-05
6.2137e-05
7.21973e-05
8.32874e-05
9.78598e-05
0.000115901
0.000138568
0.000167549
0.000205377
0.000256005
0.000325869
0.000426042
0.000576911
0.000730883
0.000839908
0.000969313
0.00112416
0.00131117
0.00153944
0.00182153
0.00217512
0.00262582
0.00321172
0.00367865
0.00464206
0.00599884
0.00799255
0.0110862
0.0162444
0.0257275
0.0456985
0.0957825
0.215688
)


120
(
0.00378181
0.0042078
0.00468071
0.00520518
0.00578603
0.0064282
0.00713658
0.00791576
0.00876966
0.00970112
0.0107338
0.0118308
0.0130033
0.0142419
0.0155312
0.0168479
0.0181595
0.0194234
0.020587
0.0215892
0.020142
0.0169085
0.0142505
0.0120646
0.0102622
0.00876981
0.00752817
0.00648972
0.00561661
0.00487866
0.0042839
0.00374203
0.00327796
0.0028788
0.00253411
0.00223537
0.00197558
0.00174895
0.0015507
0.00137682
0.00135029
0.00150855
0.00168601
0.00188513
0.00210866
0.00235973
0.00264185
0.00295894
0.00331534
0.00371578
0.00415723
0.0046602
0.00522281
0.00584957
0.00654335
0.00730372
0.00812413
0.00898744
0.00985871
0.010674
0.0101961
0.00862309
0.00719869
0.00593915
0.0048475
0.00391726
0.00313586
0.00248744
0.00195495
0.00152163
0.00122001
0.000931244
0.000701049
0.000518788
0.000375462
0.00026356
0.000176879
0.000110331
5.9777e-05
2.18666e-05
5.28485e-05
5.9777e-05
6.7751e-05
7.69651e-05
8.76609e-05
0.00010014
0.000114785
0.000132085
0.000152675
0.000177391
0.000204638
0.000240438
0.000284757
0.000340439
0.000411626
0.000504539
0.000628878
0.000800437
0.00104638
0.0014167
0.00179438
0.00206141
0.00237805
0.00275647
0.00321278
0.00376859
0.00445352
0.00530887
0.00639359
0.00779383
0.00889601
0.0111528
0.0142709
0.0187203
0.0253078
0.035447
0.0515267
0.0764539
0.105262
0.0860942
)


120
(
0.00378048
0.00420727
0.00468129
0.00520726
0.00579013
0.00643496
0.0071468
0.00793042
0.00879
0.00972859
0.0107687
0.0118764
0.0130619
0.0143162
0.0156242
0.0169625
0.0182985
0.0195892
0.0207811
0.0218118
0.0203664
0.0171078
0.0144254
0.0122171
0.0103948
0.00888497
0.00762822
0.00657676
0.00569246
0.00494488
0.00434223
0.00379314
0.00332283
0.00291828
0.00256891
0.0022661
0.00200275
0.00177302
0.00157205
0.00139578
0.00135633
0.00151547
0.00169397
0.0018943
0.00211927
0.00237204
0.00265618
0.00297569
0.00333499
0.00373893
0.00418416
0.00469214
0.00526083
0.00589498
0.00659775
0.00736901
0.00820252
0.0090814
0.00997071
0.0108061
0.0103334
0.00874755
0.00730861
0.00603403
0.00492779
0.00398404
0.00319055
0.00253159
0.00199014
0.00154933
0.00124236
0.000948419
0.000714046
0.000528443
0.000382469
0.000268489
0.000180191
0.000112399
6.0898e-05
2.22768e-05
8.7677e-05
9.91708e-05
0.000112399
0.000127683
0.000145426
0.000166126
0.000190417
0.000219112
0.000253262
0.000294254
0.000339441
0.000398809
0.000472298
0.000564619
0.000682634
0.000836644
0.0010427
0.00132694
0.00173427
0.00234726
0.00297157
0.00341159
0.00393232
0.00455307
0.00529907
0.00620379
0.00731222
0.00868573
0.0104093
0.012602
0.0142836
0.0176752
0.0221816
0.0282436
0.0364223
0.0472134
0.0602018
0.0714143
0.0687207
0.0369213
)


120
(
0.0037779
0.00420544
0.00468055
0.00520805
0.005793
0.00644061
0.0071561
0.00794447
0.00881014
0.00975647
0.0108045
0.011924
0.0131239
0.0143957
0.0157243
0.0170868
0.0184503
0.0197713
0.0209954
0.0220586
0.020616
0.0173302
0.014621
0.0123881
0.0105436
0.00901433
0.00774071
0.00667469
0.00577784
0.00501946
0.00440793
0.00385073
0.00337342
0.00296279
0.00260816
0.00230076
0.00203341
0.00180018
0.00159614
0.00141717
0.00136294
0.00152306
0.0017027
0.00190437
0.00213092
0.00238558
0.00267197
0.00299416
0.00335669
0.00376452
0.00421399
0.00472758
0.00530308
0.00594554
0.00665845
0.00744201
0.00829039
0.00918696
0.0100969
0.0109553
0.0104888
0.00888881
0.00743361
0.0061421
0.00501936
0.00406028
0.00325304
0.00258209
0.00203041
0.00158102
0.00126795
0.000968089
0.000728933
0.000539504
0.000390498
0.000274137
0.000183987
0.000114768
6.21827e-05
2.27468e-05
0.000126345
0.000142906
0.000161965
0.000183987
0.000209548
0.000239369
0.000274362
0.000315696
0.000364885
0.000423923
0.000489004
0.000574492
0.0006803
0.000813202
0.000983054
0.00120466
0.00150105
0.00190971
0.00249499
0.003375
0.00426915
0.004896
0.00563537
0.00651294
0.00756166
0.00882415
0.0103558
0.0122292
0.0145387
0.0174063
0.0195089
0.0236514
0.0288136
0.0351222
0.042448
0.049955
0.0553138
0.0541124
0.0416301
0.0186836
)


120
(
0.00377366
0.00420188
0.00467804
0.00520704
0.00579409
0.00644455
0.00716387
0.00795726
0.00882944
0.00978411
0.0108408
0.0119731
0.0131888
0.0144798
0.0158315
0.0172209
0.0186153
0.0199706
0.0212313
0.0223319
0.0208937
0.0175784
0.01484
0.0125797
0.0107106
0.00915976
0.00786731
0.00678498
0.00587406
0.00510355
0.00448204
0.00391572
0.00343051
0.00301305
0.00265247
0.0023399
0.00206804
0.00183086
0.00162335
0.00144135
0.00137015
0.00153133
0.00171223
0.00191538
0.00214369
0.00240043
0.00268931
0.00301449
0.00338061
0.0037928
0.00424697
0.00476684
0.00535
0.00600182
0.00672616
0.00752366
0.0083889
0.00930564
0.0102391
0.011124
0.0106651
0.00904953
0.00757615
0.00626556
0.00512413
0.0041476
0.00332468
0.00264003
0.00207664
0.00161743
0.00129735
0.000990697
0.000746048
0.000552222
0.00039973
0.000280632
0.000188352
0.000117494
6.36603e-05
2.32875e-05
0.000169224
0.000191401
0.000216921
0.000246408
0.000280632
0.000320557
0.000367403
0.000422731
0.000488567
0.000567577
0.000654669
0.000769043
0.000910572
0.0010883
0.00131536
0.00161149
0.00200736
0.0025528
0.00333324
0.00450513
0.00569153
0.00651647
0.00748451
0.0086259
0.00997817
0.0115878
0.0135116
0.015818
0.0185856
0.0218975
0.0241565
0.028471
0.0333502
0.0384947
0.0431665
0.0459717
0.0449021
0.0381452
0.025742
0.0106036
)


120
(
0.00376726
0.00419605
0.00467314
0.00520358
0.00579269
0.00644605
0.0071693
0.00796795
0.00884703
0.00981062
0.0108765
0.0120227
0.0132557
0.0145679
0.0159452
0.0173649
0.018794
0.0201881
0.0214905
0.0226339
0.0212023
0.0178553
0.0150849
0.0127946
0.0108983
0.00932339
0.0080099
0.00690931
0.00598261
0.00519848
0.00456573
0.00398914
0.00349504
0.00306987
0.00270259
0.00238418
0.00210722
0.00186557
0.00165416
0.00146871
0.00137797
0.00154033
0.0017226
0.00192739
0.00215763
0.00241668
0.00270831
0.0030368
0.00340693
0.00382396
0.0042834
0.00481029
0.00540206
0.00606442
0.00680167
0.00761497
0.00849941
0.0094392
0.0103997
0.0113152
0.0108656
0.00923284
0.00773913
0.00640702
0.00524438
0.00424798
0.00340713
0.00270677
0.00212993
0.00165942
0.00133126
0.00101679
0.000765805
0.000566906
0.000410392
0.000288133
0.000193394
0.000120642
6.53671e-05
2.3912e-05
0.000216695
0.000245085
0.000277753
0.000315496
0.000359298
0.000410392
0.000470336
0.000541124
0.000625342
0.000726394
0.000837779
0.000984001
0.00116489
0.00139195
0.00168191
0.00205985
0.00256471
0.00325964
0.00425263
0.00574076
0.00723946
0.00826912
0.00946844
0.010869
0.0125076
0.0144262
0.0166703
0.0192838
0.0222999
0.0257209
0.027798
0.0316268
0.035357
0.0384088
0.0399051
0.0388003
0.0342951
0.0264503
0.0165198
0.00650464
)


120
(
0.00375808
0.00418725
0.00466512
0.00519684
0.00578792
0.00644413
0.00717137
0.00797543
0.00886173
0.00983479
0.0109104
0.0120716
0.0133235
0.0146591
0.0160647
0.017518
0.0189862
0.0204242
0.0217742
0.0229669
0.0215446
0.018164
0.015359
0.0130356
0.0111093
0.00950762
0.00817065
0.00704964
0.00610523
0.00530579
0.00466038
0.00407221
0.00356808
0.0031342
0.00275935
0.00243434
0.00215161
0.00190492
0.00168908
0.00149974
0.00138642
0.00155005
0.00173384
0.00194041
0.00217278
0.00243437
0.00272905
0.00306121
0.00343578
0.00385821
0.00432351
0.00485828
0.00545971
0.00613395
0.00688583
0.00771707
0.00862341
0.00958961
0.0105813
0.0115321
0.0110941
0.00944251
0.0079261
0.0065697
0.00538294
0.00436383
0.0035024
0.00278397
0.00219163
0.00170807
0.00137057
0.00104704
0.000788718
0.00058394
0.000422762
0.000296837
0.000199245
0.000124296
6.73479e-05
2.46368e-05
0.000269141
0.000304388
0.000344944
0.000391794
0.000446158
0.000509564
0.00058394
0.000671755
0.000776208
0.000901506
0.00103961
0.00122081
0.00144487
0.00172599
0.00208476
0.002552
0.00317549
0.00403255
0.00525488
0.00708177
0.00890819
0.010142
0.0115641
0.0132024
0.0150859
0.0172411
0.019686
0.0224198
0.0254045
0.0285385
0.030091
0.0328679
0.0349205
0.0356706
0.0345238
0.0311011
0.0255062
0.0184362
0.0109838
0.00421514
)


120
(
0.00374535
0.00417464
0.00465302
0.0051858
0.00577865
0.00643757
0.00716872
0.00797827
0.00887203
0.00985502
0.0109408
0.0121181
0.0133905
0.0147516
0.0161885
0.0176793
0.0191914
0.0206792
0.0220836
0.0233331
0.0219239
0.0185079
0.0156654
0.013306
0.0113466
0.00971517
0.00835203
0.00720817
0.0062439
0.00542724
0.00476756
0.00416634
0.00365089
0.00320717
0.00282376
0.00249127
0.00220202
0.00194961
0.00172874
0.00153498
0.00139546
0.0015605
0.00174593
0.00195446
0.00218916
0.00245353
0.00275157
0.0030878
0.00346729
0.00389574
0.00436756
0.00491115
0.00552344
0.00621109
0.00697952
0.00783117
0.00876255
0.00975912
0.0107869
0.0117789
0.0113552
0.00968309
0.00814136
0.00675752
0.00554329
0.00449814
0.00361303
0.00287372
0.00226342
0.00176472
0.00141636
0.00108229
0.000815434
0.000603808
0.000437192
0.000306992
0.000206072
0.00012856
6.96594e-05
2.54827e-05
0.000326929
0.000369721
0.000418952
0.000475815
0.000541789
0.000618719
0.00070894
0.000815434
0.000942068
0.00109392
0.00126128
0.00148071
0.00175189
0.00209188
0.00252542
0.0030894
0.00384094
0.00487208
0.00633892
0.00852323
0.0106853
0.0121121
0.0137331
0.0155664
0.0176236
0.0199039
0.0223837
0.0250021
0.0276416
0.0301072
0.0308729
0.0322719
0.032563
0.0313883
0.0285661
0.0242193
0.0188083
0.0130146
0.00752621
0.00284368
)


120
(
0.00372812
0.00415716
0.0046357
0.00516917
0.00576347
0.00642481
0.00715969
0.00797464
0.00887594
0.0098692
0.0109655
0.0121599
0.0134543
0.0148432
0.0163145
0.017847
0.0194082
0.0209524
0.0224191
0.0237342
0.0223429
0.0188902
0.0160078
0.0136093
0.0116134
0.00994914
0.00855686
0.00738745
0.00640091
0.00556488
0.0048891
0.00427316
0.00374492
0.00329007
0.00289696
0.00255601
0.00225934
0.00200044
0.00177387
0.0015751
0.00140506
0.0015716
0.00175882
0.00196947
0.00220671
0.00247415
0.00277588
0.00311658
0.00350153
0.00393666
0.00441572
0.00496918
0.00559367
0.00629645
0.00708366
0.00795859
0.00891867
0.00995025
0.0110199
0.0120602
0.0116545
0.00996009
0.0083902
0.00697535
0.00572975
0.00465467
0.00374218
0.00297864
0.00234744
0.00183108
0.00147004
0.00112364
0.000846779
0.000627124
0.000454131
0.000318915
0.000214089
0.000133566
7.23739e-05
2.6476e-05
0.000390383
0.000441446
0.00050018
0.000568007
0.000646683
0.000738402
0.000845935
0.000972821
0.00112364
0.00130441
0.00150363
0.00176458
0.00208681
0.00249045
0.00300453
0.00367234
0.00456055
0.00577618
0.00749961
0.0100536
0.0125483
0.0141426
0.0159194
0.0178788
0.0200063
0.0222635
0.024577
0.0268252
0.0288276
0.0303427
0.0302052
0.0301976
0.0290077
0.026555
0.0229677
0.0185846
0.013877
0.00932162
0.00528687
0.00197794
)


120
(
0.00370525
0.00413355
0.00461173
0.0051454
0.00574063
0.00640394
0.00714214
0.0079622
0.00887094
0.00987458
0.0109814
0.0121938
0.0135117
0.0149306
0.0164395
0.0180181
0.0196344
0.0212424
0.0227803
0.0241714
0.0228044
0.0193145
0.01639
0.0139492
0.0119135
0.0102129
0.00878831
0.00759037
0.00657887
0.00572108
0.00502713
0.00439457
0.00385187
0.00338442
0.00298031
0.00262975
0.00232467
0.00205838
0.00182533
0.00162085
0.00141511
0.00158326
0.0017724
0.00198535
0.00222535
0.00249611
0.00280188
0.0031475
0.00353847
0.00398099
0.00446809
0.00503257
0.00567077
0.00639063
0.00719916
0.00810066
0.00909372
0.0101658
0.0112843
0.0123814
0.0119984
0.0102803
0.00867914
0.00722926
0.00594778
0.00483817
0.00389391
0.00310211
0.00244644
0.00190935
0.00153338
0.00117247
0.000883814
0.000654684
0.000474158
0.000333014
0.00022357
0.000139488
7.55847e-05
2.7651e-05
0.000459755
0.000519835
0.000588927
0.000668694
0.000761193
0.00086899
0.000995324
0.00114433
0.00132134
0.00153338
0.00176702
0.00207269
0.00244977
0.00292151
0.00352144
0.00429927
0.00533129
0.00673916
0.00872633
0.0116527
0.0144616
0.0161806
0.018047
0.0200363
0.0221009
0.0241609
0.0260966
0.0277436
0.0288987
0.0293407
0.0283462
0.0271499
0.0249432
0.0218524
0.0181453
0.0141733
0.0102886
0.006771
0.0037905
0.00140889
)


120
(
0.00368363
0.00411096
0.00458843
0.00512177
0.00571725
0.00638157
0.00712183
0.00794534
0.00885937
0.00987067
0.0109855
0.0122117
0.0135479
0.0149907
0.0165298
0.0181459
0.0198074
0.0214682
0.023066
0.0245217
0.0231779
0.0196606
0.0167032
0.0142293
0.0121616
0.0104317
0.00898061
0.00775926
0.00672719
0.00585142
0.0051424
0.00449605
0.00394132
0.00346338
0.00305011
0.00269153
0.00237942
0.00210697
0.00186849
0.00165923
0.00142277
0.00159218
0.00178283
0.00199759
0.00223978
0.0025132
0.0028222
0.00317177
0.00356761
0.00401615
0.00451
0.00508355
0.00573308
0.00646714
0.00729348
0.00821733
0.00923827
0.0103449
0.0115052
0.0126516
0.0122896
0.0105528
0.00892473
0.00744725
0.00613557
0.00499663
0.0040252
0.00320912
0.00253236
0.00197735
0.00158829
0.00121483
0.000915956
0.000678611
0.00049155
0.000345261
0.000231807
0.000144633
7.83745e-05
2.86719e-05
0.000515471
0.000582773
0.000660152
0.000749467
0.000853007
0.000973635
0.00111495
0.00128156
0.00147939
0.00171622
0.00197735
0.00231836
0.00273805
0.00326386
0.00393083
0.00479271
0.00593678
0.00748832
0.00967176
0.0128747
0.0158956
0.0176544
0.0195262
0.0214548
0.0234013
0.025199
0.0266696
0.0277448
0.0281918
0.0279542
0.0263729
0.0245148
0.0218642
0.0186287
0.0150912
0.0115484
0.00825126
0.0053696
0.00298497
0.00110564
)


120
(
0.00364748
0.00407279
0.00454856
0.0050807
0.00567569
0.00634055
0.00708277
0.00791018
0.00883067
0.0098518
0.0109765
0.0122214
0.0135829
0.0150591
0.0166414
0.0183117
0.0200395
0.0217791
0.0234668
0.0250209
0.0237175
0.0201653
0.0171635
0.0146427
0.0125293
0.0107569
0.00926729
0.00801158
0.00694916
0.00604674
0.00531529
0.00464841
0.00407574
0.00358212
0.00315513
0.00278453
0.00246188
0.00218016
0.00193353
0.00171709
0.00143311
0.00160429
0.00179705
0.00201437
0.00225967
0.00253687
0.0028505
0.00320578
0.00360868
0.00406598
0.00456935
0.00515621
0.00582246
0.00657761
0.00743058
0.00838804
0.00945128
0.0106106
0.0118356
0.0130586
0.0127318
0.0109694
0.00930445
0.00778388
0.00642666
0.00524301
0.00422985
0.00337627
0.00266678
0.00208386
0.0016746
0.00128145
0.000966544
0.000716287
0.000518945
0.000364556
0.000244786
0.000152741
8.27713e-05
3.02809e-05
0.000595376
0.000672996
0.000762209
0.000865139
0.00098441
0.00112329
0.00128589
0.00147746
0.00170474
0.00197656
0.00227622
0.00266678
0.0031467
0.00374683
0.00450628
0.00548479
0.00677874
0.00852486
0.0109656
0.0145119
0.0177666
0.0195249
0.0213159
0.0230531
0.0246672
0.0259669
0.0267728
0.027032
0.0265757
0.0254242
0.0233482
0.0209349
0.0180432
0.0149056
0.0117606
0.0088103
0.00619478
0.00398666
0.00220101
0.000812512
)


120
(
0.00360133
0.00402362
0.00449659
0.00502634
0.0056196
0.00628371
0.00702659
0.00785661
0.00878238
0.00981234
0.0109453
0.0122084
0.0135955
0.0151065
0.0167345
0.0184635
0.0202645
0.0220923
0.0238825
0.0255507
0.0243006
0.020718
0.0176734
0.0151033
0.0129413
0.0111228
0.00959105
0.00829736
0.00720117
0.00626895
0.00551222
0.0048222
0.00422925
0.00371786
0.00327528
0.00289101
0.00255635
0.00226407
0.00200813
0.00178347
0.00144313
0.0016161
0.00181105
0.00203103
0.00227958
0.00256078
0.00287936
0.00324077
0.0036513
0.00411818
0.00463145
0.00523295
0.00591777
0.00669653
0.00757957
0.00857537
0.00968731
0.010908
0.0122092
0.0135238
0.0132424
0.0114549
0.00975395
0.0081816
0.00677235
0.00553683
0.00447474
0.00357683
0.00282842
0.00221216
0.00177905
0.00136218
0.00102789
0.000762002
0.000552201
0.000387986
0.000260549
0.00016259
8.81127e-05
3.22357e-05
0.000681065
0.000769691
0.000871508
0.00098892
0.00112489
0.00128311
0.00146822
0.0016861
0.00194433
0.00225279
0.00259226
0.00303415
0.0035776
0.00425205
0.00510494
0.00620311
0.00764046
0.00957907
0.0122599
0.0160943
0.0195006
0.0211876
0.0227822
0.0241962
0.0252764
0.0259494
0.026112
0.0255808
0.0243573
0.0224159
0.0201477
0.0175103
0.0146695
0.0118238
0.00914128
0.00673987
0.00468368
0.00299008
0.00164273
0.000604973
)


120
(
0.00354317
0.00396113
0.0044299
0.00495574
0.00554563
0.00620726
0.00694898
0.00777976
0.00870897
0.00974605
0.0108864
0.0121668
0.0135792
0.0151255
0.0168015
0.0185934
0.0204742
0.0224003
0.0243069
0.026107
0.0249265
0.0213204
0.0182335
0.0156152
0.0134021
0.0115343
0.00995652
0.00862102
0.00748735
0.00652182
0.00573662
0.00502057
0.00440472
0.0038732
0.00341294
0.00301311
0.00266476
0.00236041
0.00209383
0.00185977
0.0014522
0.00162696
0.00182409
0.00204677
0.00229865
0.00258399
0.00290773
0.00327562
0.00369432
0.00417152
0.00469651
0.00531427
0.00601989
0.00682534
0.00774275
0.00878278
0.00995155
0.0112448
0.0126371
0.014063
0.0138414
0.0120305
0.0102834
0.00866066
0.00719124
0.00589465
0.00477416
0.00382284
0.00302719
0.00237025
0.00190704
0.00146122
0.00110322
0.000818186
0.000593094
0.000416809
0.000279947
0.000174711
9.46872e-05
3.46419e-05
0.000771968
0.000872187
0.000987256
0.00111987
0.00127332
0.00145174
0.00166027
0.00190545
0.00219565
0.00254177
0.00292315
0.00341744
0.00402213
0.00477416
0.00571954
0.00692748
0.00850785
0.010611
0.013496
0.0175789
0.0210423
0.0224948
0.0237601
0.0247161
0.0252771
0.0252841
0.0246492
0.0234278
0.0216306
0.0194119
0.0170347
0.0144201
0.0118048
0.00933193
0.00710304
0.00517482
0.00356502
0.00226263
0.00123867
0.000455381
)


120
(
0.00347075
0.00388279
0.00434559
0.0048656
0.00545002
0.00610688
0.006845
0.00767398
0.008604
0.00964557
0.0107899
0.0120852
0.0135211
0.0151021
0.0168267
0.0186843
0.020651
0.0226852
0.0247229
0.0266749
0.0255849
0.0219674
0.018845
0.0161793
0.0139143
0.0119947
0.0103676
0.00898664
0.00781176
0.00680933
0.00599224
0.00524701
0.00460537
0.0040511
0.00357078
0.00315327
0.00278932
0.0024712
0.00219245
0.00194764
0.00145942
0.00163584
0.00183505
0.00206033
0.0023155
0.00260498
0.00293398
0.00330856
0.0037358
0.00422396
0.00476086
0.00539617
0.00612454
0.00695958
0.00791555
0.00900591
0.0102402
0.0116184
0.0131191
0.01468
0.0145378
0.0127084
0.0109183
0.00923657
0.00769869
0.00633082
0.00514102
0.00412548
0.00327252
0.00256587
0.00206614
0.00158454
0.00119714
0.000888295
0.000644158
0.000452817
0.000304188
0.000189863
0.000102906
3.76503e-05
0.000867081
0.000979316
0.00110809
0.00125638
0.00142782
0.00162694
0.00185938
0.00213229
0.00245479
0.0028387
0.00326158
0.00380753
0.00447339
0.00529841
0.00633082
0.00764251
0.00934622
0.0115923
0.014635
0.0188669
0.0222633
0.0233968
0.0242288
0.0246449
0.0245829
0.0239384
0.0226951
0.0209654
0.0188252
0.0164488
0.014176
0.0117414
0.00943522
0.00734625
0.00552513
0.00398911
0.00273047
0.00172548
0.000942147
0.000345932
)


120
(
0.00338174
0.00378594
0.00424062
0.00475239
0.0053287
0.00597789
0.00670925
0.00753299
0.00846017
0.00950246
0.0106462
0.0119525
0.0134084
0.0150215
0.0167936
0.0187181
0.020775
0.0229262
0.0251098
0.0272352
0.026262
0.0226508
0.0195046
0.0167949
0.0144793
0.0125066
0.0108278
0.00939813
0.00817847
0.00713548
0.00628296
0.0055052
0.00483466
0.00425477
0.00375177
0.0033142
0.00293251
0.00259869
0.00230604
0.00204891
0.00146343
0.00164124
0.00184225
0.00206987
0.00232806
0.00262147
0.00295557
0.00333679
0.00377268
0.00427215
0.00482078
0.00547467
0.00622753
0.00709495
0.00809384
0.00924112
0.0105509
0.0120285
0.0136589
0.0153847
0.0153485
0.0135109
0.0116857
0.00993562
0.0083205
0.00686948
0.00559694
0.00450354
0.00358023
0.00281203
0.00226736
0.00174083
0.00131637
0.000977394
0.000709109
0.000498646
0.000335054
0.000209161
0.000113376
4.14828e-05
0.000964858
0.00108929
0.00123195
0.00139605
0.00158557
0.00180539
0.00206162
0.00236194
0.00271612
0.00313676
0.00359927
0.00419424
0.00491915
0.00580879
0.00691837
0.00832261
0.0101209
0.0124784
0.0156173
0.0198782
0.0230749
0.0238178
0.0241423
0.0239846
0.02328
0.022073
0.0204222
0.0183799
0.0161016
0.0137095
0.0116556
0.00948376
0.00750926
0.00577778
0.00430576
0.00308756
0.00210315
0.00132477
0.000721952
0.000264834
)


120
(
0.00327386
0.00366792
0.00411191
0.00461257
0.00517754
0.00581545
0.00653604
0.00735014
0.00826967
0.00930749
0.0104461
0.0117578
0.0132284
0.0148686
0.0166847
0.0186746
0.0208237
0.0230991
0.0254422
0.0277635
0.026938
0.0233581
0.0202009
0.0174589
0.0150966
0.0130718
0.0113399
0.00985897
0.00859134
0.0075043
0.00661246
0.00579879
0.0050961
0.00448755
0.00395904
0.00349882
0.00309701
0.00274535
0.00243685
0.00216565
0.00146225
0.00164094
0.00184321
0.0020726
0.00233323
0.00262999
0.00296863
0.00335598
0.00380016
0.00431077
0.00487211
0.00554535
0.0063243
0.00722693
0.00827343
0.00948515
0.0108821
0.0124771
0.0142641
0.0161943
0.0163025
0.0144743
0.0126106
0.0108014
0.00909976
0.00755112
0.0061785
0.00498887
0.00397729
0.00313095
0.00252724
0.0019432
0.00147105
0.00109317
0.000793602
0.000558312
0.000375262
0.000234308
0.000127023
4.64785e-05
0.00106311
0.00119961
0.00135592
0.00153553
0.00174266
0.00198253
0.00226163
0.00258807
0.00297213
0.00342695
0.00392755
0.00456704
0.00534059
0.00628947
0.00746253
0.00893064
0.0108014
0.0132081
0.0163641
0.0205632
0.0234425
0.0236753
0.0234561
0.0227414
0.0215586
0.0199294
0.0179491
0.0157772
0.0135259
0.0113287
0.009498
0.00761799
0.00596181
0.00454497
0.0033632
0.00239915
0.00162823
0.00102313
0.000556762
0.000204094
)


120
(
0.0031451
0.00352638
0.0039567
0.00444287
0.00499266
0.00561496
0.00631989
0.00711885
0.00802459
0.00905116
0.0101763
0.0114854
0.0129622
0.0146212
0.0164735
0.0185229
0.0207616
0.0231635
0.0256766
0.0282146
0.0275739
0.02406
0.0209193
0.0181576
0.0157579
0.0136855
0.011902
0.0103693
0.00905173
0.00791796
0.00698361
0.00613087
0.00539285
0.00475255
0.00419561
0.00370999
0.00328553
0.00291369
0.00258722
0.00230001
0.00145299
0.0016317
0.00183429
0.00206443
0.00232641
0.00262535
0.00296733
0.0033596
0.00381086
0.00433155
0.00490322
0.0055951
0.00640008
0.00733901
0.00843608
0.00971822
0.0112131
0.0129438
0.0149173
0.017099
0.017404
0.0156175
0.0137473
0.0118721
0.0100786
0.00841847
0.00692638
0.00561839
0.00449587
0.00354975
0.00287149
0.00221223
0.00167722
0.0012478
0.000906614
0.000638201
0.000429136
0.000268019
0.000145322
5.31782e-05
0.00115894
0.00130694
0.00147622
0.00167043
0.00189404
0.00215251
0.00245259
0.00280268
0.00321337
0.0036981
0.00423067
0.00490701
0.00572294
0.00671252
0.00792901
0.00944123
0.0113351
0.0137473
0.0168405
0.0208314
0.0232838
0.0230273
0.0222899
0.0210968
0.0194917
0.0175952
0.0155224
0.013367
0.0112522
0.0092562
0.00768964
0.006097
0.00472766
0.00357828
0.00263348
0.00187113
0.00126634
0.000794263
0.000431742
0.000158181
)


120
(
0.00299398
0.00335957
0.00377287
0.00424071
0.00477094
0.00537262
0.00605613
0.00683337
0.00771783
0.00872466
0.0098278
0.0111237
0.0125952
0.014261
0.0161373
0.018235
0.0205546
0.0230795
0.0257669
0.0285378
0.0281226
0.0247197
0.0216273
0.018871
0.0164493
0.0143388
0.0125089
0.0109263
0.00955885
0.00837698
0.00739728
0.006503
0.00572692
0.00505202
0.00446383
0.0039501
0.00350041
0.00310597
0.00275929
0.00245401
0.0014315
0.00160883
0.00181021
0.0020394
0.00230086
0.00259994
0.00294302
0.00333781
0.00379362
0.00432178
0.00490159
0.00560974
0.00643892
0.00741338
0.00856218
0.00991925
0.0115223
0.0134084
0.0156035
0.0180962
0.0186727
0.0169822
0.0151371
0.0132211
0.0113374
0.00955309
0.00791851
0.00646308
0.00519811
0.00412104
0.00334211
0.00258176
0.00196146
0.00146156
0.00106316
0.000749023
0.000503945
0.000314861
0.000170758
6.24929e-05
0.00124874
0.00140719
0.00158814
0.00179539
0.00203354
0.00230821
0.00262627
0.00299625
0.00342878
0.00393725
0.00449571
0.00519905
0.00604223
0.00705729
0.00829381
0.00981389
0.0116915
0.0140415
0.0169872
0.0206747
0.0226339
0.0218855
0.0206981
0.0191385
0.0172865
0.0152724
0.0132074
0.011174
0.00926256
0.00752236
0.00619702
0.00486863
0.00374785
0.00282081
0.00206728
0.00146433
0.00098891
0.000619383
0.000336399
0.0001232
)


120
(
0.00281999
0.00316676
0.00355945
0.00400481
0.00451067
0.00508612
0.00574172
0.0064897
0.00734412
0.00832107
0.00939159
0.0106612
0.0121125
0.0137684
0.015651
0.0177787
0.0201622
0.0227966
0.0256525
0.0286634
0.0285153
0.0252793
0.0222779
0.0195627
0.0171434
0.0150115
0.0131458
0.0115198
0.0101058
0.00887696
0.00785046
0.0069136
0.00609775
0.00538616
0.00476442
0.00422018
0.0037429
0.00332356
0.00295448
0.00262907
0.00139189
0.0015657
0.00176344
0.00198896
0.00224686
0.00254266
0.00288304
0.00327611
0.0037318
0.00426232
0.00484544
0.00556415
0.00641182
0.00741656
0.00861322
0.0100444
0.0117605
0.0138179
0.0162697
0.0191423
0.0200931
0.0185896
0.0168303
0.0149333
0.012981
0.0110698
0.00927084
0.00763299
0.00618338
0.00493089
0.00401147
0.00311091
0.00237059
0.00177044
0.00129002
0.000909961
0.000612742
0.000383047
0.000207805
7.60632e-05
0.00132831
0.0014956
0.00168629
0.00190427
0.00215417
0.00244163
0.00277352
0.00315826
0.00360626
0.00413049
0.00470682
0.00542489
0.00627741
0.00729974
0.00852976
0.0100189
0.0118391
0.0140613
0.016784
0.0200931
0.0215344
0.0203445
0.0188118
0.0170164
0.0150698
0.0130625
0.0110911
0.00924403
0.00756558
0.00608787
0.00497844
0.00388283
0.00297194
0.00222705
0.0016268
0.00114959
0.000775077
0.000484928
0.000263205
9.63639e-05
)


120
(
0.00262907
0.00295448
0.00332356
0.0037429
0.00422018
0.00476442
0.00538616
0.00609775
0.0069136
0.00785046
0.00887696
0.0101058
0.0115198
0.0131458
0.0150115
0.0171434
0.0195627
0.0222789
0.0252793
0.0285153
0.0286634
0.0256525
0.0227955
0.0201622
0.0177787
0.015651
0.0137684
0.0121125
0.0106612
0.00939159
0.00832107
0.00734412
0.0064897
0.00574172
0.00508612
0.00451067
0.00400481
0.00355945
0.00316676
0.00281999
0.00132831
0.0014956
0.00168629
0.00190427
0.00215417
0.00244163
0.00277352
0.00315826
0.00360626
0.00413049
0.00470682
0.00542489
0.00627847
0.00729974
0.00852976
0.0100209
0.0118391
0.0140647
0.0167885
0.0200931
0.0215344
0.0203523
0.0188118
0.0170242
0.0150698
0.0130625
0.0110974
0.00924947
0.00757019
0.00608787
0.00497844
0.00388283
0.00297194
0.00222705
0.0016268
0.00114959
0.000775077
0.000484928
0.000263205
9.63639e-05
0.00139189
0.0015657
0.00176344
0.00198896
0.00224686
0.00254266
0.00288304
0.00327611
0.0037318
0.00426232
0.00484544
0.00556415
0.00641079
0.00741656
0.00861322
0.0100425
0.0117605
0.0138148
0.0162658
0.0191423
0.0200931
0.0185835
0.0168303
0.0149274
0.012981
0.0110698
0.00926657
0.00762934
0.00618034
0.00493089
0.00401147
0.00311091
0.00237059
0.00177044
0.00129002
0.000909961
0.000612742
0.000383047
0.000207805
7.60632e-05
)


120
(
0.00245401
0.00275929
0.00310597
0.00350041
0.0039501
0.00446383
0.00505202
0.00572692
0.006503
0.00739728
0.00837698
0.00955885
0.0109263
0.0125089
0.0143388
0.0164493
0.018871
0.0216264
0.0247197
0.0281226
0.0285378
0.0257669
0.0230806
0.0205546
0.018235
0.0161373
0.014261
0.0125952
0.0111237
0.0098278
0.00872466
0.00771783
0.00683337
0.00605613
0.00537262
0.00477094
0.00424071
0.00377287
0.00335957
0.00299398
0.00124874
0.00140719
0.00158814
0.00179539
0.00203354
0.00230821
0.00262627
0.00299625
0.00342878
0.00393725
0.00449571
0.00519905
0.00604114
0.00705729
0.00829381
0.00981175
0.0116915
0.0140378
0.0169822
0.0206747
0.0226339
0.021876
0.0206981
0.0191281
0.0172865
0.0152724
0.0131984
0.0111659
0.00925555
0.00752236
0.00619702
0.00486863
0.00374785
0.00282081
0.00206728
0.00146433
0.00098891
0.000619383
0.000336399
0.0001232
0.0014315
0.00160883
0.00181021
0.0020394
0.00230086
0.00259994
0.00294302
0.00333781
0.00379362
0.00432178
0.00490159
0.00560974
0.00643989
0.00741338
0.00856218
0.00992099
0.0115223
0.0134111
0.0156069
0.0180962
0.0186727
0.0169872
0.0151371
0.0132255
0.0113374
0.00955309
0.00792158
0.00646567
0.00520025
0.00412104
0.00334211
0.00258176
0.00196146
0.00146156
0.00106316
0.000749023
0.000503945
0.000314861
0.000170758
6.24929e-05
)


120
(
0.00230001
0.00258722
0.00291369
0.00328553
0.00370999
0.00419561
0.00475255
0.00539285
0.00613087
0.00698361
0.00791796
0.00905173
0.0103693
0.011902
0.0136855
0.0157579
0.0181576
0.0209184
0.02406
0.0275739
0.0282146
0.0256766
0.0231647
0.0207616
0.0185229
0.0164735
0.0146212
0.0129622
0.0114854
0.0101763
0.00905116
0.00802459
0.00711885
0.00631989
0.00561496
0.00499266
0.00444287
0.0039567
0.00352638
0.0031451
0.00115894
0.00130694
0.00147622
0.00167043
0.00189404
0.00215251
0.00245259
0.00280268
0.00321337
0.0036981
0.00423067
0.00490701
0.00572186
0.00671252
0.00792901
0.00943904
0.0113351
0.0137435
0.0168352