/*--------------------------------*- C++ -*----------------------------------*\
| =========                 |                                                 |
| \\      /  F ield         | OpenFOAM: The Open Source CFD Toolbox           |
|  \\    /   O peration     | Version:  2206                                  |
|   \\  /    A nd           | Website:  www.openfoam.com                      |
|    \\/     M anipulation  |                                                 |
\*---------------------------------------------------------------------------*/
FoamFile
{
    version     2.0;
    format      ascii;
    arch        "LSB;label=32;scalar=64";
    class       scalarListList;
    location    "constant";
    object      F;
}
// * * * * * * * * * * * * * * * * * * * * * * * * * * * * * * * * * * * * * //


200
(

150
(
0.00188022
0.00210545
0.00235751
0.00263953
0.00295494
0.00330754
0.00370147
0.00414124
0.00463168
0.00517793
0.00578535
0.00645938
0.00720532
0.00802805
0.00893157
0.00991836
0.011021
0.0121845
0.0134249
0.0147292
0.0160765
0.0174365
0.0187677
0.0200173
0.0211219
0.0196974
0.0164299
0.0137668
0.0115928
0.00981157
0.00834493
0.00713068
0.00611963
0.00527298
0.00459582
0.00398446
0.00346508
0.00302179
0.0026418
0.00231478
0.00203233
0.00178757
0.00157482
0.0013894
0.0012274
0.00108553
0.000961058
0.000851641
0.000755304
0.000670357
0.000666622
0.000748024
0.000839554
0.000942516
0.00105839
0.00118885
0.00133582
0.00150146
0.00168824
0.00189896
0.0021368
0.00240535
0.00270864
0.00305118
0.00343792
0.00387423
0.00435874
0.0049106
0.00552876
0.00621707
0.00697634
0.00780162
0.00867763
0.00957145
0.0104208
0.00994513
0.00835471
0.00693605
0.00569897
0.00464037
0.00374857
0.00300697
0.00239687
0.00189942
0.00154595
0.00121334
0.000947018
0.000734841
0.000566572
0.00043369
0.000329187
0.000247345
0.000183529
0.000134003
9.57702e-05
6.64335e-05
4.40832e-05
2.72015e-05
1.4585e-05
5.28228e-06
5.28228e-06
5.96408e-06
6.74081e-06
7.62754e-06
8.64226e-06
9.80655e-06
1.11465e-05
1.26939e-05
1.44877e-05
1.65764e-05
1.90205e-05
2.18965e-05
2.53028e-05
2.93668e-05
3.42566e-05
4.01975e-05
4.68191e-05
5.56537e-05
6.67767e-05
8.10274e-05
9.96697e-05
0.000124679
0.000159283
0.000209059
0.000284328
0.000359592
0.000409185
0.00046658
0.00053328
0.000611152
0.000702552
0.000810472
0.000938771
0.00109249
0.00119456
0.00140492
0.00166445
0.00198905
0.0024016
0.00293601
0.00364416
0.00460873
0.00596782
0.00796576
0.0110672
0.0162403
0.0257545
0.0457971
0.0960399
0.215786
)


150
(
0.00188017
0.0021055
0.00235771
0.00263991
0.00295558
0.00330851
0.00370289
0.00414323
0.00463442
0.00518163
0.00579028
0.00646588
0.0072138
0.00803902
0.00894565
0.00993629
0.011043
0.0122121
0.0134593
0.0147716
0.0161283
0.017499
0.0188419
0.020104
0.0212214
0.0197971
0.0165175
0.013843
0.0116588
0.00986855
0.00839412
0.00717317
0.0061564
0.00530486
0.00462371
0.00400874
0.00348626
0.00304029
0.002658
0.002329
0.00204482
0.00179856
0.00158451
0.00139795
0.00123495
0.00109222
0.000966979
0.000856889
0.000759958
0.000674487
0.000667986
0.000749574
0.000841318
0.000944527
0.00106069
0.00119148
0.00133884
0.00150493
0.00169224
0.00190358
0.00214216
0.00241159
0.00271593
0.00305972
0.00344797
0.0038861
0.00437261
0.0049271
0.00554846
0.00624066
0.00700466
0.00783563
0.00871843
0.00962015
0.0104783
0.0100047
0.00840821
0.00698292
0.00573917
0.00467425
0.0037767
0.00303002
0.00241556
0.00191444
0.00155826
0.00122309
0.000954682
0.00074082
0.0005712
0.000437244
0.000331891
0.000249381
0.000185041
0.000135109
9.65608e-05
6.69822e-05
4.44474e-05
2.74263e-05
1.47056e-05
5.32594e-06
1.30245e-05
1.47056e-05
1.66207e-05
1.88071e-05
2.13091e-05
2.41799e-05
2.74837e-05
3.12991e-05
3.57221e-05
4.0872e-05
4.68981e-05
5.39894e-05
6.23879e-05
7.24082e-05
8.44645e-05
9.91124e-05
0.000115438
0.00013722
0.000164644
0.000199779
0.00024574
0.000307397
0.000392707
0.000515414
0.000700955
0.000886451
0.00100863
0.00115
0.00131423
0.00150589
0.00173073
0.00199604
0.00231117
0.00268831
0.0029381
0.00345272
0.00408605
0.00487558
0.00587452
0.00716047
0.00884958
0.0111213
0.0142623
0.0187478
0.0253927
0.0356242
0.0518455
0.0769345
0.105647
0.0857638
)


150
(
0.00188
0.00210544
0.00235778
0.00264018
0.00295611
0.0033094
0.00370425
0.00414521
0.00463721
0.00518547
0.00579547
0.00647278
0.00722289
0.00805086
0.00896093
0.00995585
0.0110671
0.0122425
0.0134972
0.0148186
0.0161858
0.0175684
0.0189246
0.0202009
0.0213327
0.0199088
0.0166158
0.0139287
0.011733
0.00993262
0.00844945
0.00722099
0.00619779
0.00534076
0.00465511
0.00403607
0.0035101
0.00306113
0.00267625
0.00234501
0.0020589
0.00181095
0.00159543
0.00140759
0.00124347
0.00109975
0.000973651
0.000862802
0.000765203
0.000679143
0.000669504
0.000751298
0.000843281
0.000946765
0.00106324
0.00119441
0.00134219
0.00150879
0.00169669
0.00190874
0.00214814
0.00241855
0.00272406
0.00306926
0.00345921
0.00389939
0.00438814
0.00494558
0.00557054
0.00626713
0.00703645
0.00787385
0.00876433
0.009675
0.0105432
0.0100719
0.00846866
0.00703593
0.00578467
0.00471261
0.00380856
0.00305615
0.00243675
0.00193146
0.00157223
0.00123415
0.000963375
0.000747602
0.000576451
0.000441276
0.000334959
0.00025169
0.000186757
0.000136363
9.74577e-05
6.76047e-05
4.48607e-05
2.76813e-05
1.48424e-05
5.37547e-06
2.16919e-05
2.44917e-05
2.76813e-05
3.13226e-05
3.54895e-05
4.02706e-05
4.5773e-05
5.21271e-05
5.94933e-05
6.807e-05
7.81059e-05
8.99156e-05
0.000103902
0.000120589
0.000140667
0.00016506
0.000192248
0.000228521
0.000274188
0.000332693
0.000409223
0.000511882
0.000653915
0.000858194
0.00116703
0.00147569
0.00167882
0.00191372
0.00218644
0.00250444
0.00287709
0.00331619
0.0038368
0.00445836
0.00486788
0.00571085
0.00674298
0.00802075
0.00962227
0.0116572
0.0142814
0.017719
0.0222908
0.0284449
0.0367478
0.0476865
0.0607854
0.0718955
0.0687026
0.0365209
)


150
(
0.00187968
0.0021052
0.00235768
0.00264028
0.00295649
0.00331015
0.0037055
0.00414713
0.00464
0.00518939
0.00580086
0.00648005
0.00723255
0.00806355
0.00897743
0.00997709
0.0110933
0.0122757
0.013539
0.0148704
0.0162494
0.0176455
0.0190167
0.020309
0.0214571
0.020034
0.0167262
0.0140248
0.0118163
0.0100047
0.00851172
0.00727483
0.00624441
0.0053812
0.0046905
0.00406688
0.00353698
0.00308463
0.00269683
0.00236307
0.00207477
0.00182492
0.00160775
0.00141846
0.00125308
0.00110825
0.000981177
0.000869472
0.000771119
0.000684394
0.00067119
0.000753215
0.000845462
0.000949253
0.00106608
0.00119766
0.00134593
0.00151309
0.00170165
0.00191448
0.00215481
0.00242632
0.00273314
0.00307992
0.00347177
0.00391424
0.00440552
0.00496628
0.00559529
0.00629682
0.00707215
0.00791682
0.00881599
0.00973682
0.0106164
0.0101479
0.00853705
0.00709594
0.00583622
0.0047561
0.00384469
0.00308579
0.0024608
0.00195078
0.0015881
0.00124672
0.000973251
0.000755307
0.000582417
0.000445858
0.000338446
0.000254314
0.000188707
0.000137788
9.84771e-05
6.83122e-05
4.53303e-05
2.79712e-05
1.49978e-05
5.43177e-06
3.13928e-05
3.54447e-05
4.00607e-05
4.53303e-05
5.13605e-05
5.82795e-05
6.62423e-05
7.54377e-05
8.60975e-05
9.8509e-05
0.000113032
0.000130122
0.000150361
0.000174508
0.000203561
0.000238857
0.000278197
0.00033068
0.000396752
0.000481394
0.000592107
0.000740608
0.000946043
0.00124146
0.001688
0.00213399
0.00242707
0.0027657
0.0031584
0.00361566
0.0041505
0.0047792
0.00552229
0.00640588
0.00698277
0.0081687
0.00960807
0.0113691
0.0135413
0.016241
0.0196165
0.023847
0.0291216
0.0355631
0.0430202
0.0505958
0.0558491
0.0542814
0.0413443
0.0183405
)


150
(
0.00187913
0.00210474
0.00235736
0.00264015
0.00295663
0.00331068
0.00370655
0.00414888
0.00464268
0.0051933
0.00580635
0.00648759
0.00724271
0.00807705
0.00899513
0.0100001
0.0111218
0.012312
0.0135847
0.0149274
0.0163197
0.017731
0.0191191
0.0204295
0.0215962
0.0201742
0.01685
0.0141329
0.0119101
0.0100858
0.00858183
0.00733548
0.00629694
0.00542678
0.00473039
0.00410162
0.00356729
0.00311113
0.00272005
0.00238344
0.00209268
0.00184069
0.00162165
0.00143073
0.00126392
0.00111785
0.000989672
0.000877002
0.000777798
0.000690322
0.000673061
0.000755342
0.000847884
0.000952015
0.00106924
0.00120128
0.00135008
0.00151787
0.00170717
0.00192087
0.00216224
0.00243498
0.00274327
0.00309182
0.00348579
0.00393085
0.00442496
0.00498946
0.00562304
0.00633014
0.00711225
0.00796515
0.00887417
0.00980653
0.0106991
0.0102338
0.00861449
0.00716398
0.00589472
0.00480549
0.00388575
0.00311949
0.00248815
0.00197277
0.00160614
0.00126101
0.00098449
0.000764077
0.000589208
0.000451073
0.000342414
0.000257302
0.000190927
0.000139411
9.96376e-05
6.91177e-05
4.5865e-05
2.83012e-05
1.51748e-05
5.49587e-06
4.2247e-05
4.76997e-05
5.39115e-05
6.10029e-05
6.91177e-05
7.84284e-05
8.91438e-05
0.000101518
0.000115862
0.000132563
0.000152105
0.0001751
0.000202333
0.000234823
0.000273912
0.0003214
0.000374328
0.000444932
0.000533812
0.000647665
0.00079657
0.000996272
0.00127249
0.0016696
0.00226964
0.00286839
0.00326095
0.00371392
0.0042383
0.00484753
0.00555807
0.0063902
0.00736901
0.00852558
0.00927
0.0107975
0.0126264
0.0148238
0.017468
0.0206446
0.0244323
0.028869
0.0338789
0.0391351
0.0438465
0.046546
0.0451822
0.0380277
0.0253689
0.0103277
)


150
(
0.00187831
0.00210398
0.00235671
0.00263969
0.00295644
0.00331088
0.0037073
0.00415036
0.00464515
0.00519707
0.00581183
0.00649529
0.00725328
0.00809127
0.00901397
0.0100247
0.0111526
0.0123515
0.0136347
0.0149901
0.0163972
0.0178256
0.0192328
0.0205638
0.0217516
0.0203312
0.0169889
0.0142543
0.0120155
0.0101771
0.00866082
0.00740385
0.00635618
0.0054782
0.00477541
0.00414082
0.0036015
0.00314105
0.00274626
0.00240645
0.0021129
0.0018585
0.00163735
0.00144459
0.00127617
0.00112868
0.00099927
0.000885509
0.000785344
0.000697021
0.000675134
0.000757699
0.000850569
0.000955079
0.00107275
0.0012053
0.0013547
0.00152318
0.00171331
0.00192798
0.0021705
0.00244462
0.00275456
0.00310509
0.00350146
0.00394941
0.0044467
0.00501541
0.00565413
0.00636752
0.00715732
0.00801954
0.00893973
0.00988521
0.0107926
0.0103311
0.00870233
0.00724124
0.00596121
0.00486167
0.00393249
0.00315786
0.00251931
0.00199782
0.00162671
0.00127731
0.000997307
0.00077408
0.000596954
0.000457023
0.000346942
0.000260711
0.00019346
0.000141262
0.000100962
7.00367e-05
4.64751e-05
2.86777e-05
1.53767e-05
5.569e-06
5.43866e-05
6.14058e-05
6.94022e-05
7.85307e-05
8.89766e-05
0.000100962
0.000114755
0.000130683
0.000149146
0.000170643
0.000195796
0.000225393
0.000260443
0.000302257
0.000352562
0.000413672
0.000481781
0.000572627
0.000686978
0.000833442
0.00102497
0.00128178
0.00163691
0.00214728
0.00291807
0.00368613
0.00418802
0.00476599
0.00543338
0.00620621
0.00710376
0.00814918
0.0093702
0.0107997
0.0117002
0.013544
0.0157083
0.0182401
0.0211784
0.0245368
0.0282709
0.0322239
0.0360483
0.0391198
0.0405112
0.039155
0.0343065
0.026169
0.016148
0.00628492
)


150
(
0.0018771
0.00210282
0.00235564
0.00263878
0.0029558
0.00331062
0.00370758
0.0041514
0.00464722
0.00520053
0.00581712
0.00650298
0.00726406
0.00810604
0.00903383
0.010051
0.0111856
0.0123941
0.0136891
0.0150586
0.0164825
0.0179301
0.0193589
0.0207132
0.0219252
0.0205071
0.0171448
0.0143908
0.0121342
0.01028
0.00874986
0.00748096
0.00642304
0.00553626
0.00482624
0.00418511
0.00364016
0.00317486
0.00277589
0.00243245
0.00213577
0.00187863
0.0016551
0.00146027
0.00129002
0.00114094
0.00101013
0.00089513
0.000793879
0.000704597
0.000677426
0.000760306
0.00085354
0.000958471
0.00107663
0.00120975
0.00135981
0.00152908
0.00172012
0.00193588
0.00217969
0.00245534
0.00276713
0.00311988
0.00351893
0.00397014
0.004471
0.00504445
0.00568898
0.00640948
0.00720797
0.00808076
0.00901365
0.00997408
0.0108984
0.0104414
0.00880209
0.00732912
0.00603692
0.00492569
0.0039858
0.00320166
0.00255488
0.00202644
0.00165022
0.00129594
0.00101196
0.000785515
0.000605811
0.000463826
0.00035212
0.000264609
0.000196357
0.000143379
0.000102476
7.10879e-05
4.71728e-05
2.91084e-05
1.56076e-05
5.65265e-06
6.79561e-05
7.67263e-05
8.67171e-05
9.81223e-05
0.000111173
0.000126147
0.000143379
0.000163278
0.000186344
0.000213199
0.00024462
0.00028159
0.000325371
0.000377597
0.000440424
0.00051674
0.000601795
0.000715226
0.000857987
0.00104081
0.00127983
0.00160024
0.00204314
0.00267936
0.00363951
0.0045944
0.00521542
0.00592855
0.00674903
0.00769474
0.00878651
0.0100484
0.0115074
0.0131933
0.0142225
0.0163252
0.0187247
0.0214271
0.0244051
0.0275716
0.0307434
0.0335998
0.0356581
0.0363045
0.034934
0.0312083
0.0253254
0.018089
0.0106466
0.00403962
)


150
(
0.00187541
0.00210113
0.00235401
0.00263728
0.00295453
0.00330971
0.00370721
0.0041518
0.00464869
0.00520344
0.00582198
0.0065104
0.00727483
0.00812115
0.00905448
0.0100787
0.0112207
0.0124399
0.013748
0.0151333
0.0165759
0.0180453
0.0194985
0.0208794
0.0221188
0.020704
0.0173197
0.0145442
0.0122678
0.0103959
0.00885031
0.007568
0.00649854
0.00560185
0.00488368
0.00423517
0.00368388
0.00321311
0.00280941
0.00246188
0.00216164
0.00190141
0.0016752
0.00147801
0.00130571
0.00115482
0.00102242
0.000906025
0.000803543
0.000713176
0.000679954
0.000763183
0.00085682
0.000962217
0.00108091
0.00121467
0.00136547
0.0015356
0.00172767
0.00194464
0.00218989
0.00246726
0.00278111
0.00313634
0.0035384
0.00399327
0.00449815
0.00507695
0.00572802
0.00645656
0.0072649
0.0081497
0.00909707
0.0100746
0.0110183
0.0105667
0.0089156
0.00742925
0.0061233
0.00499883
0.00404674
0.00325176
0.00259561
0.00205921
0.00167714
0.00131728
0.00102875
0.000798622
0.000615964
0.000471626
0.000358056
0.000269079
0.000199679
0.000145807
0.000104213
7.22933e-05
4.7973e-05
2.96023e-05
1.58725e-05
5.74858e-06
8.31133e-05
9.38388e-05
0.000106057
0.000120005
0.000135964
0.000154275
0.000175347
0.000199679
0.000227882
0.000260717
0.000299133
0.000344332
0.000397852
0.000461692
0.000538484
0.000631752
0.000735698
0.000874292
0.00104869
0.00127197
0.00156381
0.00195488
0.00249519
0.00327079
0.00444014
0.00559993
0.00634926
0.00720638
0.00818758
0.00931129
0.0105978
0.0120689
0.0137464
0.0156496
0.0167594
0.019025
0.0215101
0.0241626
0.0268748
0.029461
0.0316391
0.0330336
0.0332221
0.0318428
0.0287468
0.024126
0.0185193
0.0126586
0.00723274
0.0027026
)


150
(
0.00187308
0.00209875
0.00235164
0.00263499
0.00295242
0.00330793
0.00370594
0.00415129
0.00464925
0.0052055
0.00582607
0.00651721
0.00728524
0.00813623
0.00907561
0.0101075
0.0112576
0.0124886
0.0138113
0.0152143
0.0166779
0.0181718
0.0196527
0.0210637
0.0223346
0.0209242
0.017516
0.0147168
0.0124183
0.0105266
0.00896368
0.00766632
0.00658388
0.00567603
0.00494867
0.00429183
0.00373337
0.00325641
0.00284737
0.00249521
0.00219096
0.00192723
0.00169797
0.00149812
0.00132348
0.00117055
0.00103635
0.000918376
0.0008145
0.000722903
0.000682735
0.000766349
0.000860431
0.000966345
0.00108564
0.00122009
0.00137171
0.00154281
0.00173602
0.00195433
0.00220119
0.00248048
0.00279664
0.00315465
0.00356009
0.00401907
0.00452845
0.00511328
0.00577175
0.00650939
0.00732892
0.00822737
0.00919125
0.0101883
0.0111543
0.0107092
0.009045
0.00754361
0.0062221
0.00508257
0.00411659
0.00330924
0.00264235
0.00209684
0.00170807
0.00134181
0.00104804
0.00081369
0.000627638
0.000480595
0.000364884
0.00027422
0.000203499
0.0001486
0.000106211
7.36799e-05
4.88936e-05
3.01704e-05
1.61772e-05
5.85894e-06
0.000100028
0.000112935
0.000127638
0.000144422
0.000163626
0.000185659
0.000211013
0.000240288
0.00027422
0.000313721
0.000359934
0.000414301
0.000478673
0.000555449
0.000647789
0.000759925
0.000884894
0.00105147
0.00126103
0.00152924
0.00187967
0.00234901
0.00299702
0.00392638
0.00532568
0.00670843
0.00759384
0.00860122
0.00974661
0.0110469
0.0125189
0.0141776
0.0160333
0.0180868
0.0192057
0.0214973
0.023875
0.0262228
0.0283627
0.03005
0.0309892
0.03088
0.0294991
0.0267943
0.0229475
0.0183587
0.0135424
0.00898569
0.0050364
0.0018638
)


150
(
0.00186993
0.00209548
0.0023483
0.00263166
0.0029492
0.00330497
0.00370343
0.0041495
0.00464852
0.00520629
0.00582895
0.00652295
0.00729479
0.00815082
0.00909673
0.010137
0.0112959
0.01254
0.0138788
0.0153015
0.0167888
0.0183102
0.0198225
0.0212679
0.0225748
0.0211704
0.0177362
0.0149108
0.0125878
0.0106741
0.00909173
0.00777748
0.00668043
0.00576
0.00502227
0.00435603
0.00378946
0.00330551
0.00289042
0.00253302
0.00222421
0.00195653
0.00172381
0.00152094
0.00134366
0.0011884
0.00105216
0.000932397
0.00082694
0.000733947
0.000685783
0.000769821
0.000864394
0.000970876
0.00109084
0.00122606
0.00137859
0.00155076
0.00174522
0.00196504
0.00221368
0.00249511
0.00281385
0.00317498
0.0035842
0.0040478
0.00456225
0.00515387
0.00582071
0.00656867
0.00740089
0.00831492
0.00929768
0.0103172
0.0113088
0.0108716
0.00919282
0.00767453
0.0063354
0.00517873
0.00419689
0.00337537
0.00269617
0.0021402
0.00174371
0.00137009
0.0010703
0.000831074
0.000641108
0.000490946
0.000372763
0.000280154
0.00020791
0.000151824
0.000108517
7.52807e-05
4.99562e-05
3.08263e-05
1.65289e-05
5.98633e-06
0.000118881
0.000134219
0.00015169
0.000171634
0.000194452
0.000220631
0.000250753
0.000285533
0.000325842
0.000372763
0.000427652
0.00049222
0.000568659
0.000659816
0.000769434
0.000902526
0.00105084
0.00124846
0.00149698
0.00181494
0.00223015
0.00278587
0.00355246
0.00465051
0.00630089
0.00792377
0.00895042
0.0101102
0.0114168
0.0128827
0.0145171
0.0163228
0.0182914
0.0203968
0.0214303
0.0235771
0.0256306
0.0274245
0.0287472
0.029362
0.0290506
0.0276734
0.0252306
0.0218931
0.0179783
0.0138748
0.00994799
0.00646751
0.00357882
0.00131604
)


150
(
0.00186574
0.00209108
0.00234373
0.00262699
0.00294454
0.00330046
0.00369928
0.00414598
0.00464601
0.00520526
0.00583006
0.006527
0.00730285
0.00816422
0.00911716
0.0101666
0.011335
0.0125934
0.0139501
0.0153948
0.0169084
0.018461
0.0200088
0.0214935
0.0228417
0.0214455
0.017983
0.0151289
0.0127788
0.0108405
0.00923646
0.00790324
0.00678977
0.00585515
0.00510571
0.00442883
0.0038531
0.00336124
0.00293929
0.00257596
0.00226199
0.00198981
0.00175317
0.00154687
0.00136659
0.0012087
0.00107014
0.000948338
0.000841083
0.000746505
0.000689107
0.000773611
0.000868722
0.000975831
0.00109652
0.0012326
0.00138613
0.00155948
0.00175534
0.00197682
0.00222745
0.00251126
0.00283287
0.00319749
0.00361095
0.00407974
0.00459989
0.00519917
0.00587548
0.00663514
0.00748182
0.00841363
0.00941802
0.0104633
0.0114847
0.0110571
0.00936211
0.00782481
0.00646571
0.00528952
0.00428951
0.00345173
0.00275838
0.00219035
0.00178495
0.00140282
0.00109607
0.000851206
0.000656712
0.000502938
0.000381894
0.00028703
0.00021302
0.000155561
0.00011119
7.71359e-05
5.11879e-05
3.15865e-05
1.69366e-05
6.13399e-06
0.000139863
0.000157904
0.000178455
0.000201912
0.00022875
0.000259537
0.000294961
0.000335857
0.000383252
0.000438416
0.000502938
0.000578829
0.000668659
0.000775764
0.000904532
0.00106083
0.001235
0.00146695
0.00175852
0.00213134
0.00261785
0.00326843
0.00416481
0.00544669
0.00736889
0.00924681
0.0104157
0.0117237
0.0131793
0.014787
0.0165432
0.0184324
0.0204209
0.0224497
0.0232868
0.0251009
0.0266224
0.0276675
0.0280444
0.0275907
0.0262204
0.0239635
0.0209799
0.0175336
0.0139341
0.0104693
0.00735493
0.00471423
0.0025859
0.000946846
)


150
(
0.00186022
0.00208521
0.00233755
0.00262057
0.00293798
0.00329391
0.00369295
0.00414015
0.00464107
0.00520174
0.00582862
0.00652855
0.00730854
0.00817552
0.00913595
0.0101952
0.0113739
0.0126479
0.0140243
0.0154934
0.0170366
0.0186242
0.0202124
0.0217419
0.0231377
0.0217523
0.0182596
0.0153741
0.0129941
0.0110285
0.00940014
0.00804565
0.0069137
0.0059631
0.00520041
0.00451152
0.00392541
0.00342458
0.00299487
0.00262479
0.00230497
0.00202769
0.00178659
0.00157639
0.00139269
0.00123181
0.00109062
0.000966491
0.000857191
0.000760807
0.000692713
0.000777724
0.000873425
0.000981218
0.00110271
0.00123972
0.00139436
0.001569
0.00176641
0.00198973
0.00224256
0.00252903
0.00285385
0.00322235
0.00364057
0.00411519
0.00464172
0.00524966
0.00593668
0.00670963
0.0075728
0.00852495
0.00955421
0.0106293
0.0116853
0.0112693
0.0095565
0.00799785
0.00661609
0.0054176
0.00439677
0.00354026
0.00283056
0.00224858
0.00183287
0.00144087
0.00112604
0.000874627
0.000674869
0.000516895
0.000392521
0.000295035
0.000218971
0.000159911
0.000114302
7.92962e-05
5.2622e-05
3.24717e-05
1.74113e-05
6.30594e-06
0.000163166
0.000184209
0.000208177
0.000235533
0.00026683
0.000302729
0.000344031
0.000391709
0.000446957
0.000511253
0.000586445
0.000674869
0.000779513
0.00090425
0.00105417
0.00123609
0.00143879
0.00170854
0.00204744
0.00248047
0.00304505
0.00379914
0.00483654
0.00631695
0.00853011
0.010674
0.01198
0.0134231
0.0150034
0.0167124
0.0185289
0.0204136
0.0223032
0.0241049
0.0246307
0.0259347
0.0267646
0.0269623
0.0264056
0.0250437
0.0229245
0.0201978
0.0170905
0.0138593
0.0107401
0.00791059
0.00547619
0.00347494
0.0018945
0.000691633
)


150
(
0.00185302
0.00207749
0.00232934
0.00261193
0.002929
0.00328473
0.00368378
0.00413128
0.0046329
0.00519481
0.00582367
0.00652654
0.00731071
0.00818351
0.00915181
0.0102215
0.0114112
0.0127022
0.0141002
0.0155963
0.0171726
0.0187996
0.0204335
0.0220142
0.023465
0.0220939
0.0185692
0.0156496
0.0132367
0.0112408
0.00958535
0.00820703
0.0070543
0.00608568
0.00530801
0.00460554
0.00400768
0.00349668
0.00305815
0.00268042
0.00235394
0.00207085
0.00182468
0.00161005
0.00142246
0.00125816
0.00111397
0.000987199
0.000875568
0.000777125
0.000696592
0.000782155
0.000878496
0.000987036
0.0011094
0.00124744
0.00140328
0.00157936
0.00177847
0.00200381
0.00225908
0.00254849
0.00287687
0.00324972
0.00367325
0.00415441
0.00468812
0.00530581
0.00600497
0.00679304
0.00767502
0.0086505
0.00970843
0.0108181
0.0119143
0.0115128
0.00978039
0.00819778
0.0067903
0.0055663
0.0045215
0.00364337
0.00291473
0.00231654
0.00188882
0.00148532
0.00116107
0.000902014
0.000696106
0.000533223
0.000404957
0.000304402
0.000225935
0.000165003
0.000117945
8.18249e-05
5.43008e-05
3.35079e-05
1.7967e-05
6.50721e-06
0.000188982
0.000213348
0.000241098
0.000272768
0.000308998
0.000350551
0.000398353
0.000453526
0.00051745
0.000591829
0.000678796
0.000781043
0.000902014
0.00104617
0.00121936
0.00142943
0.00166346
0.00197463
0.00236528
0.00286398
0.0035134
0.00437952
0.00556867
0.007261
0.00978108
0.0121955
0.0136249
0.0151783
0.0168431
0.0185938
0.0203869
0.0221564
0.0238102
0.0252295
0.0253433
0.0260031
0.0260631
0.02543
0.0240774
0.0220635
0.0195297
0.0166759
0.0137216
0.0108662
0.00826022
0.00599484
0.0041058
0.00258665
0.00140411
0.000511531
)


150
(
0.0018437
0.00206743
0.00231855
0.00260045
0.00291691
0.00327216
0.00367092
0.00411842
0.00462045
0.00518334
0.00581395
0.00651958
0.00730789
0.00818656
0.00916302
0.0102438
0.0114449
0.0127543
0.014176
0.0157018
0.0173149
0.0189862
0.020672
0.0223113
0.0238254
0.0224733
0.0189152
0.0159589
0.01351
0.0114806
0.00979503
0.00839003
0.00721396
0.00622504
0.00543042
0.00471258
0.00410141
0.00357886
0.00313033
0.00274389
0.00240983
0.00212013
0.00186818
0.00164849
0.00145647
0.00128827
0.00114066
0.00101087
0.000896574
0.00079578
0.000700724
0.000786881
0.000883912
0.000993258
0.00111656
0.00125572
0.00141287
0.00159051
0.00179148
0.00201906
0.00227701
0.00256967
0.002902
0.00327968
0.00370915
0.00419764
0.00473939
0.0053681
0.00608102
0.00688629
0.00778978
0.00879208
0.00988314
0.011033
0.0121764
0.011793
0.0100391
0.00842968
0.00699299
0.00573975
0.0046673
0.00376408
0.00301339
0.0023963
0.00195452
0.00153756
0.00120226
0.000934228
0.000721096
0.000552441
0.000419596
0.000315432
0.000234135
0.000170999
0.000122235
8.4803e-05
5.6278e-05
3.47283e-05
1.86215e-05
6.74428e-06
0.000217489
0.000245519
0.000277441
0.000313868
0.000355534
0.000403317
0.000458277
0.000521701
0.00059517
0.000680636
0.000780541
0.000897964
0.00103684
0.00120226
0.00140092
0.00164173
0.00190997
0.00226623
0.00271305
0.00328278
0.00402358
0.00500967
0.00636006
0.00827516
0.0111128
0.0137931
0.0153208
0.0169449
0.0186364
0.0203488
0.0220146
0.0235429
0.0248208
0.0257206
0.0253566
0.0253087
0.0246177
0.0232744
0.0213434
0.0189585
0.0162993
0.0135583
0.0109083
0.00847969
0.00635252
0.00455986
0.00309855
0.0019419
0.00105083
0.000382252
)


150
(
0.00183172
0.00205443
0.00230452
0.00258539
0.00290088
0.00325527
0.00365334
0.00410043
0.00460245
0.00516591
0.00579787
0.00650595
0.00729813
0.00818259
0.00916731
0.0102595
0.0114725
0.0128016
0.0142488
0.0158073
0.0174611
0.019182
0.0209266
0.022633
0.0242204
0.0228933
0.019301
0.0163058
0.0138177
0.0117515
0.0100325
0.00859767
0.0073954
0.00638361
0.00556984
0.0048346
0.00420834
0.00367269
0.00321277
0.00281643
0.00247373
0.00217649
0.00191795
0.00169248
0.0014954
0.00132275
0.00117121
0.00103797
0.000920633
0.000817149
0.000705063
0.00079185
0.000889619
0.000999828
0.00112415
0.0012645
0.00142308
0.00160241
0.0018054
0.00203542
0.00229631
0.00259254
0.00292924
0.00331228
0.00374836
0.00424504
0.0047958
0.00543693
0.00616543
0.0069903
0.00791844
0.00895163
0.0100811
0.011278
0.0124769
0.0121162
0.0103392
0.00869983
0.00722998
0.00594314
0.00483868
0.00390625
0.00312978
0.0024905
0.00203218
0.00159937
0.00125102
0.000972382
0.000750704
0.000575219
0.000436951
0.000328509
0.000243859
0.00017811
0.000127323
8.83352e-05
5.86231e-05
3.6176e-05
1.93978e-05
7.02547e-06
0.000248836
0.000280892
0.000317392
0.00035904
0.00040667
0.000461283
0.000524087
0.000596548
0.000680463
0.000778055
0.000892094
0.00102608
0.00118447
0.00137305
0.00159937
0.00187351
0.00217883
0.00258373
0.00309094
0.00373669
0.00457474
0.00568753
0.0072065
0.00935111
0.0125088
0.0154377
0.0170246
0.0186631
0.0203046
0.0218806
0.023302
0.0244614
0.025241
0.0255276
0.0246704
0.023935
0.0226007
0.0207363
0.0184688
0.0159624
0.0133891
0.0109018
0.00861568
0.006602
0.00489122
0.00348213
0.00235249
0.00146868
0.00079294
0.000288126
)


150
(
0.00181645
0.00203777
0.00228643
0.00256585
0.0028799
0.00323291
0.00362976
0.00407587
0.0045773
0.00514072
0.00577345
0.00648341
0.007279
0.0081689
0.00916174
0.0102655
0.0114906
0.0128403
0.014315
0.015909
0.0176077
0.0193841
0.021195
0.0229781
0.0246505
0.0233562
0.01973
0.0166939
0.0141637
0.0120573
0.0103013
0.00883332
0.00760173
0.00656422
0.00572878
0.00497388
0.0043305
0.00377997
0.00330709
0.00289946
0.00254691
0.00224107
0.00197499
0.00174293
0.00154004
0.0013623
0.00120627
0.00106908
0.000948248
0.000841679
0.000709527
0.000796977
0.00089552
0.00100664
0.00113204
0.00127366
0.00143376
0.0016149
0.00182008
0.00205273
0.00231683
0.00261697
0.00295846
0.00334741
0.00379083
0.00429666
0.00485746
0.00551259
0.00625874
0.00710594
0.00806234
0.00913122
0.0103054
0.0115574
0.0128223
0.0124903
0.0106887
0.0090161
0.0075086
0.00618311
0.00504146
0.00407487
0.00326807
0.00260259
0.00212467
0.00167304
0.0013092
0.00101793
0.000786068
0.000602433
0.000457692
0.000344141
0.000255485
0.000186613
0.000133407
9.25595e-05
6.14279e-05
3.79073e-05
2.03263e-05
7.36179e-06
0.000283125
0.000319575
0.000361074
0.000408417
0.00046255
0.000524607
0.000595953
0.000678246
0.000773519
0.000884277
0.00101365
0.00116557
0.00134507
0.00155863
0.00181474
0.00212467
0.00246978
0.0029266
0.00349795
0.00422397
0.00516391
0.00640813
0.00809953
0.0104743
0.0139434
0.0170874
0.0186786
0.0202577
0.0217559
0.0230859
0.0241453
0.024825
0.0250236
0.0246661
0.0233564
0.0220307
0.0202206
0.0180476
0.0156634
0.0132243
0.0108678
0.00869752
0.00677762
0.00513623
0.00377326
0.00266965
0.00179579
0.00111794
0.000602557
0.000218771
)


150
(
0.00180243
0.00202242
0.00226968
0.00254766
0.00286024
0.00321181
0.00360728
0.00405218
0.00455264
0.00511549
0.00574825
0.00645907
0.00725669
0.0081502
0.00914878
0.0102611
0.0114946
0.0128603
0.0143564
0.0159786
0.0177136
0.0195353
0.0214011
0.0232486
0.0249931
0.0237298
0.0200795
0.0170124
0.0144492
0.0123106
0.0105247
0.00902965
0.00777398
0.00671527
0.00586186
0.00509063
0.00443301
0.00387006
0.00338636
0.00296928
0.00260848
0.00229542
0.00202303
0.00178541
0.00157766
0.00139563
0.00123583
0.0010953
0.000971534
0.000862367
0.000712848
0.000800801
0.000899937
0.00101176
0.00113798
0.0012806
0.00144187
0.00162444
0.00183133
0.00206607
0.00233271
0.00263597
0.00298131
0.00337504
0.00382442
0.00433772
0.00490645
0.00557307
0.00633382
0.0071996
0.00817967
0.00927866
0.0104909
0.0117902
0.0131121
0.0128067
0.0109862
0.00928683
0.00774818
0.00639021
0.00521698
0.00422117
0.0033883
0.00270019
0.00220552
0.00173751
0.00136014
0.00105784
0.000817069
0.000626299
0.000475886
0.000357857
0.000265687
0.000194076
0.000138747
9.62673e-05
6.38898e-05
3.9427e-05
2.11414e-05
7.65701e-06
0.00031064
0.00035061
0.000396111
0.00044801
0.000507344
0.000575349
0.000653515
0.000743653
0.000847976
0.000969216
0.00111078
0.00127694
0.00147316
0.00170647
0.00198605
0.00232412
0.00270076
0.00319745
0.0038194
0.00460624
0.00562382
0.00696696
0.00878905
0.0113315
0.0150192
0.0182805
0.0198409
0.0213192
0.0226194
0.0236888
0.0244438
0.0247164
0.0244089
0.0236484
0.0220269
0.0203571
0.0183163
0.0160442
0.0136889
0.0113847
0.00923693
0.00731443
0.00565164
0.00425475
0.00311018
0.00219256
0.00147115
0.000914338
0.000492338
0.000178671
)


150
(
0.00177949
0.00199723
0.00224209
0.00251756
0.00282754
0.00317648
0.00356935
0.00401179
0.00451008
0.00507124
0.00570306
0.00641405
0.0072134
0.00811085
0.00911634
0.0102395
0.0114848
0.0128721
0.0143981
0.0160604
0.0178477
0.0197356
0.021683
0.0236271
0.0254813
0.0242701
0.0205904
0.0174814
0.014872
0.0126874
0.0108581
0.00932349
0.00803236
0.00694223
0.00606201
0.00526646
0.00458757
0.00400604
0.0035061
0.00307483
0.00270161
0.00237767
0.00209574
0.00184976
0.00163464
0.00144614
0.00128063
0.00113506
0.00100685
0.000893744
0.000717171
0.0008058
0.000905735
0.0010185
0.00114586
0.00128983
0.00145274
0.00163729
0.00184659
0.00208426
0.0023545
0.00266222
0.0030131
0.00341373
0.00387178
0.00439602
0.00497732
0.00566114
0.00644387
0.00733781
0.00835403
0.00949933
0.0107705
0.0121439
0.0135562
0.0132955
0.0114493
0.00971068
0.00812514
0.00671742
0.00549524
0.00445374
0.00357985
0.00285597
0.00233383
0.00183994
0.00144116
0.00112137
0.000866442
0.000664325
0.000504885
0.000379723
0.000281954
0.000205977
0.000147265
0.000102182
6.7817e-05
4.18514e-05
2.24416e-05
8.12798e-06
0.000350052
0.000395052
0.000446266
0.00050467
0.00057142
0.0006479
0.000735776
0.000837069